<?xml version="1.0" encoding="UTF-8"?>

<!-- generated on 2025-05-24 10:12:59 by Eclipse SUMO sumo Version 1.22.0
-->

<sumoConfiguration xmlns:xsi="http://www.w3.org/2001/XMLSchema-instance" xsi:noNamespaceSchemaLocation="http://sumo.dlr.de/xsd/sumoConfiguration.xsd">

    <input>
        <net-file value="test.net.xml"/>
        <route-files value="rou.rou.xml"/>
        <additional-files value="add.add.xml"/>
    </input>

</sumoConfiguration>
