<?xml version="1.0" encoding="UTF-8"?>

<!-- generated on 2025-05-24 11:31:40 by Eclipse SUMO netedit Version 1.22.0
-->

<additional xmlns:xsi="http://www.w3.org/2001/XMLSchema-instance" xsi:noNamespaceSchemaLocation="http://sumo.dlr.de/xsd/additional_file.xsd">
    <!-- TAZs -->
    <taz id="taz_0" shape="-472.06,407.67 -507.78,379.09 -493.49,349.32 -445.86,350.51 -425.62,381.47 -473.25,405.29 -472.06,407.67" color="blue">
        <tazSource id="-E4" weight="1.00"/>
        <tazSink id="-E4" weight="1.00"/>
        <tazSource id="E4" weight="1.00"/>
        <tazSink id="E4" weight="1.00"/>
    </taz>
    <taz id="taz_1" shape="-610.34,-256.47 -654.62,-308.63 -634.94,-364.72 -572.94,-349.96 -557.20,-275.17 -610.34,-258.44 -610.34,-256.47" color="blue">
        <tazSource id="-E12" weight="1.00"/>
        <tazSink id="-E12" weight="1.00"/>
        <tazSource id="E12" weight="1.00"/>
        <tazSink id="E12" weight="1.00"/>
    </taz>
    <taz id="taz_2" shape="-388.91,-433.61 -383.01,-479.86 -321.99,-468.05 -331.84,-420.82 -386.95,-434.59 -388.91,-433.61" color="blue">
        <tazSource id="-E11" weight="1.00"/>
        <tazSink id="-E11" weight="1.00"/>
        <tazSource id="E11" weight="1.00"/>
        <tazSink id="E11" weight="1.00"/>
    </taz>
    <taz id="taz_3" shape="241.90,-420.82 231.07,-481.83 298.97,-478.88 303.89,-421.80 239.93,-422.79 241.90,-420.82" color="blue">
        <tazSource id="-E10.33" weight="1.00"/>
        <tazSink id="-E10.33" weight="1.00"/>
        <tazSource id="E10.33" weight="1.00"/>
        <tazSink id="E10.33" weight="1.00"/>
    </taz>
    <taz id="taz_4" shape="126.76,478.65 121.84,426.49 182.85,426.49 189.74,483.57 125.77,477.67 126.76,478.65" color="blue">
        <tazSource id="-E9" weight="1.00"/>
        <tazSink id="-E9" weight="1.00"/>
        <tazSource id="E9" weight="1.00"/>
        <tazSink id="E9" weight="1.00"/>
    </taz>
    <taz id="taz_5" shape="390.50,377.29 390.50,300.53 441.67,310.37 435.76,382.21 392.46,376.31 390.50,377.29" color="blue">
        <tazSource id="-E8" weight="1.00"/>
        <tazSink id="-E8" weight="1.00"/>
        <tazSource id="E8" weight="1.00"/>
        <tazSink id="E8" weight="1.00"/>
    </taz>
</additional>
