<?xml version="1.0" encoding="UTF-8"?>

<!-- generated on 2025-05-24 11:31:33 by Eclipse SUMO netedit Version 1.22.0
-->

<routes xmlns:xsi="http://www.w3.org/2001/XMLSchema-instance" xsi:noNamespaceSchemaLocation="http://sumo.dlr.de/xsd/routes_file.xsd">
    <!-- Vehicles, persons and containers (sorted by depart) -->
    <flow id="F1" begin="0.00" departLane="random" fromTaz="taz_0" toTaz="taz_2" end="300.00" number="10"/>
    <flow id="F2" begin="0.00" departLane="random" fromTaz="taz_1" toTaz="taz_4" end="300.00" number="10"/>
    <flow id="F3" begin="0.00" departLane="random" fromTaz="taz_0" toTaz="taz_5" end="300.00" number="10"/>
</routes>
