<?xml version="1.0" encoding="UTF-8"?>

<!-- generated on 2025-05-19 20:33:25 by Eclipse SUMO netedit Version 1.22.0
<neteditConfiguration xmlns:xsi="http://www.w3.org/2001/XMLSchema-instance" xsi:noNamespaceSchemaLocation="http://sumo.dlr.de/xsd/neteditConfiguration.xsd">

    <input>
        <sumo-net-file value="D:\coding\git\Sumo\Net\test.net.xml"/>
    </input>

    <output>
        <output-file value="D:\coding\git\Sumo\Net\test.net.xml"/>
    </output>

    <processing>
        <offset.disable-normalization value="true"/>
    </processing>

    <junctions>
        <no-turnarounds value="true"/>
    </junctions>

    <netedit>
        <new-network value="false"/>
    </netedit>

</neteditConfiguration>
-->

<net version="1.20" junctionCornerDetail="5" limitTurnSpeed="5.50" xmlns:xsi="http://www.w3.org/2001/XMLSchema-instance" xsi:noNamespaceSchemaLocation="http://sumo.dlr.de/xsd/net_file.xsd">

    <location netOffset="0.00,0.00" convBoundary="-604.30,-459.76,412.56,450.05" origBoundary="10000000000.00,10000000000.00,-10000000000.00,-10000000000.00" projParameter="!"/>

    <edge id=":J10_0" function="internal">
        <lane id=":J10_0_0" index="0" speed="7.31" length="11.73" shape="-377.33,-270.40 -379.87,-270.19 -381.85,-268.80 -383.25,-266.23 -384.09,-262.49"/>
    </edge>
    <edge id=":J10_1" function="internal">
        <lane id=":J10_1_0" index="0" speed="13.89" length="20.90" shape="-377.33,-270.40 -398.04,-273.14"/>
        <lane id=":J10_1_1" index="1" speed="13.89" length="20.90" shape="-376.90,-273.57 -397.63,-276.32"/>
    </edge>
    <edge id=":J10_3" function="internal">
        <lane id=":J10_3_0" index="0" speed="9.74" length="5.58" shape="-376.90,-273.57 -382.04,-275.21 -382.17,-275.34"/>
    </edge>
    <edge id=":J10_16" function="internal">
        <lane id=":J10_16_0" index="0" speed="9.74" length="16.31" shape="-382.17,-275.34 -385.37,-278.51 -386.90,-283.47 -386.63,-290.08"/>
    </edge>
    <edge id=":J10_4" function="internal">
        <lane id=":J10_4_0" index="0" speed="7.19" length="11.45" shape="-380.31,-289.09 -380.54,-285.36 -379.90,-282.58 -378.41,-280.77 -376.05,-279.91"/>
    </edge>
    <edge id=":J10_5" function="internal">
        <lane id=":J10_5_0" index="0" speed="13.89" length="26.92" shape="-380.31,-289.09 -384.09,-262.49"/>
        <lane id=":J10_5_1" index="1" speed="13.89" length="26.92" shape="-383.47,-289.59 -387.26,-262.89"/>
    </edge>
    <edge id=":J10_7" function="internal">
        <lane id=":J10_7_0" index="0" speed="9.92" length="21.92" shape="-383.47,-289.59 -385.23,-283.20 -388.17,-278.86 -392.31,-276.57 -397.63,-276.32"/>
    </edge>
    <edge id=":J10_8" function="internal">
        <lane id=":J10_8_0" index="0" speed="6.63" length="9.21" shape="-396.39,-285.84 -393.83,-285.85 -391.87,-286.65 -390.53,-288.22 -389.79,-290.58"/>
    </edge>
    <edge id=":J10_9" function="internal">
        <lane id=":J10_9_0" index="0" speed="13.89" length="21.25" shape="-396.39,-285.84 -390.17,-284.52 -386.00,-282.86 -381.93,-281.21 -376.05,-279.91"/>
        <lane id=":J10_9_1" index="1" speed="13.89" length="21.25" shape="-396.80,-282.66 -390.59,-281.35 -386.42,-279.69 -382.36,-278.04 -376.48,-276.74"/>
    </edge>
    <edge id=":J10_11" function="internal">
        <lane id=":J10_11_0" index="0" speed="9.84" length="4.06" shape="-397.22,-279.49 -393.34,-278.26"/>
    </edge>
    <edge id=":J10_17" function="internal">
        <lane id=":J10_17_0" index="0" speed="9.84" length="17.90" shape="-393.34,-278.26 -392.14,-277.87 -388.79,-274.57 -387.17,-269.57 -387.26,-262.89"/>
    </edge>
    <edge id=":J10_12" function="internal">
        <lane id=":J10_12_0" index="0" speed="6.51" length="9.03" shape="-393.61,-263.70 -393.65,-266.17 -394.47,-268.04 -396.07,-269.31 -398.45,-269.97"/>
    </edge>
    <edge id=":J10_13" function="internal">
        <lane id=":J10_13_0" index="0" speed="13.89" length="27.11" shape="-393.61,-263.70 -389.79,-290.58"/>
        <lane id=":J10_13_1" index="1" speed="13.89" length="27.11" shape="-390.44,-263.29 -386.63,-290.08"/>
    </edge>
    <edge id=":J10_15" function="internal">
        <lane id=":J10_15_0" index="0" speed="9.83" length="22.06" shape="-390.44,-263.29 -388.84,-269.79 -385.99,-274.19 -381.86,-276.51 -376.48,-276.74"/>
    </edge>
    <edge id=":J11_0" function="internal">
        <lane id=":J11_0_0" index="0" speed="13.89" length="0.80" shape="8.05,-218.29 7.94,-218.34 7.86,-218.36 7.78,-218.38 7.67,-218.40"/>
        <lane id=":J11_0_1" index="1" speed="13.89" length="0.80" shape="9.25,-221.26 8.92,-221.39 8.69,-221.47 8.45,-221.52 8.09,-221.57"/>
    </edge>
    <edge id=":J11_2" function="internal">
        <lane id=":J11_2_0" index="0" speed="13.89" length="2.41" shape="8.95,-227.91 9.78,-227.79 10.34,-227.68 10.88,-227.50 11.66,-227.19"/>
        <lane id=":J11_2_1" index="1" speed="13.89" length="2.41" shape="8.52,-224.74 9.11,-224.66 9.51,-224.57 9.90,-224.45 10.46,-224.23"/>
    </edge>
    <edge id=":J12_0" function="internal">
        <lane id=":J12_0_0" index="0" speed="13.89" length="20.32" shape="240.46,-147.80 237.02,-127.89"/>
        <lane id=":J12_0_1" index="1" speed="13.89" length="20.32" shape="237.32,-148.44 233.84,-128.31"/>
    </edge>
    <edge id=":J12_2" function="internal">
        <lane id=":J12_2_0" index="0" speed="9.06" length="4.11" shape="237.32,-148.44 235.93,-144.58"/>
    </edge>
    <edge id=":J12_8" function="internal">
        <lane id=":J12_8_0" index="0" speed="9.06" length="16.36" shape="235.93,-144.58 235.39,-143.06 232.22,-139.84 227.84,-138.80 222.23,-139.94"/>
    </edge>
    <edge id=":J12_3" function="internal">
        <lane id=":J12_3_0" index="0" speed="6.22" length="9.05" shape="224.38,-145.97 226.86,-145.47 228.80,-145.92 230.20,-147.34 231.05,-149.73"/>
    </edge>
    <edge id=":J12_4" function="internal">
        <lane id=":J12_4_0" index="0" speed="10.15" length="19.72" shape="223.30,-142.95 228.43,-140.44 231.90,-137.16 233.71,-133.12 233.84,-128.31"/>
    </edge>
    <edge id=":J12_5" function="internal">
        <lane id=":J12_5_0" index="0" speed="7.69" length="10.93" shape="227.50,-129.16 227.37,-131.61 226.26,-133.73 224.19,-135.50 221.15,-136.93"/>
    </edge>
    <edge id=":J12_6" function="internal">
        <lane id=":J12_6_0" index="0" speed="13.89" length="20.76" shape="227.50,-129.16 231.05,-149.73"/>
        <lane id=":J12_6_1" index="1" speed="13.89" length="20.76" shape="230.67,-128.74 234.19,-149.08"/>
    </edge>
    <edge id=":J13_0" function="internal">
        <lane id=":J13_0_0" index="0" speed="6.59" length="9.21" shape="181.67,330.43 179.11,330.49 177.18,331.33 175.88,332.94 175.23,335.32"/>
    </edge>
    <edge id=":J13_1" function="internal">
        <lane id=":J13_1_0" index="0" speed="9.22" length="19.52" shape="182.02,327.24 176.83,325.90 173.35,323.22 171.58,319.19 171.53,313.83"/>
    </edge>
    <edge id=":J13_2" function="internal">
        <lane id=":J13_2_0" index="0" speed="6.46" length="9.03" shape="177.88,314.68 177.90,317.16 178.72,319.02 180.33,320.26 182.73,320.88"/>
    </edge>
    <edge id=":J13_3" function="internal">
        <lane id=":J13_3_0" index="0" speed="13.89" length="20.84" shape="177.88,314.68 175.23,335.32"/>
        <lane id=":J13_3_1" index="1" speed="13.89" length="20.84" shape="174.70,314.25 172.05,334.93"/>
    </edge>
    <edge id=":J13_5" function="internal">
        <lane id=":J13_5_0" index="0" speed="13.89" length="20.90" shape="165.70,334.15 168.36,313.40"/>
        <lane id=":J13_5_1" index="1" speed="13.89" length="20.90" shape="168.87,334.54 171.53,313.83"/>
    </edge>
    <edge id=":J13_7" function="internal">
        <lane id=":J13_7_0" index="0" speed="9.32" length="5.10" shape="168.87,334.54 170.22,329.63"/>
    </edge>
    <edge id=":J13_8" function="internal">
        <lane id=":J13_8_0" index="0" speed="9.32" length="14.34" shape="170.22,329.63 170.26,329.46 172.98,326.01 177.01,324.22 182.38,324.06"/>
    </edge>
    <edge id=":J19_0" function="internal">
        <lane id=":J19_0_0" index="0" speed="13.89" length="0.10" shape="244.89,-169.42 244.89,-169.42"/>
        <lane id=":J19_0_1" index="1" speed="13.89" length="0.10" shape="241.76,-170.07 241.76,-170.07"/>
    </edge>
    <edge id=":J19_2" function="internal">
        <lane id=":J19_2_0" index="0" speed="13.89" length="0.10" shape="235.49,-171.35 235.49,-171.35"/>
        <lane id=":J19_2_1" index="1" speed="13.89" length="0.10" shape="238.62,-170.71 238.62,-170.71"/>
    </edge>

    <edge id="-E10" from="J19" to="J12" priority="-1">
        <lane id="-E10_0" index="0" speed="13.89" length="22.07" shape="244.89,-169.42 240.46,-147.80"/>
        <lane id="-E10_1" index="1" speed="13.89" length="22.07" shape="241.76,-170.07 237.32,-148.44"/>
    </edge>
    <edge id="-E10.33" from="J16" to="J19" priority="-1" shape="267.44,-451.53 273.77,-370.17 263.58,-284.55 240.19,-170.39">
        <lane id="-E10.33_0" index="0" speed="13.89" length="285.26" shape="272.22,-451.90 278.59,-370.07 268.32,-283.78 244.89,-169.42"/>
        <lane id="-E10.33_1" index="1" speed="13.89" length="285.26" shape="269.03,-451.65 275.38,-370.14 265.16,-284.29 241.76,-170.07"/>
    </edge>
    <edge id="-E11" from="J17" to="J10" priority="-1">
        <lane id="-E11_0" index="0" speed="13.89" length="172.02" shape="-353.58,-459.02 -380.31,-289.09"/>
        <lane id="-E11_1" index="1" speed="13.89" length="172.02" shape="-356.74,-459.51 -383.47,-289.59"/>
    </edge>
    <edge id="-E12" from="J18" to="J10" priority="-1" shape="-604.30,-304.35 -449.54,-284.68 -387.14,-276.56">
        <lane id="-E12_0" index="0" speed="13.89" length="208.57" shape="-603.29,-312.29 -448.52,-292.61 -396.39,-285.84"/>
        <lane id="-E12_1" index="1" speed="13.89" length="208.57" shape="-603.69,-309.11 -448.93,-289.44 -396.80,-282.66"/>
        <lane id="-E12_2" index="2" speed="13.89" length="208.57" shape="-604.10,-305.94 -449.34,-286.27 -397.22,-279.49"/>
    </edge>
    <edge id="-E4" from="J10" to="J9" priority="-1">
        <lane id="-E4_0" index="0" speed="13.89" length="655.60" shape="-384.09,-262.49 -466.77,387.88"/>
        <lane id="-E4_1" index="1" speed="13.89" length="655.60" shape="-387.26,-262.89 -469.94,387.47"/>
    </edge>
    <edge id="-E5" from="J11" to="J10" priority="-1">
        <lane id="-E5_0" index="0" speed="13.89" length="388.49" shape="7.67,-218.40 -377.33,-270.40"/>
        <lane id="-E5_1" index="1" speed="13.89" length="388.49" shape="8.09,-221.57 -376.90,-273.57"/>
    </edge>
    <edge id="-E6" from="J12" to="J11" priority="-1" shape="233.47,-137.62 119.11,-178.47 9.11,-223.05">
        <lane id="-E6_0" index="0" speed="13.89" length="228.09" shape="221.15,-136.93 117.40,-173.98 8.05,-218.29"/>
        <lane id="-E6_1" index="1" speed="13.89" length="228.09" shape="222.23,-139.94 118.54,-176.97 9.25,-221.26"/>
    </edge>
    <edge id="-E7" from="J13" to="J12" priority="-1">
        <lane id="-E7_0" index="0" speed="13.89" length="446.50" shape="168.36,313.40 227.50,-129.16"/>
        <lane id="-E7_1" index="1" speed="13.89" length="446.50" shape="171.53,313.83 230.67,-128.74"/>
    </edge>
    <edge id="-E8" from="J14" to="J13" priority="-1">
        <lane id="-E8_0" index="0" speed="13.89" length="231.77" shape="412.03,356.02 181.67,330.43"/>
        <lane id="-E8_1" index="1" speed="13.89" length="231.77" shape="412.38,352.84 182.02,327.24"/>
    </edge>
    <edge id="-E9" from="J15" to="J13" priority="-1">
        <lane id="-E9_0" index="0" speed="13.89" length="116.18" shape="151.52,449.47 165.70,334.15"/>
        <lane id="-E9_1" index="1" speed="13.89" length="116.18" shape="154.70,449.86 168.87,334.54"/>
    </edge>
    <edge id="E10" from="J12" to="J19" priority="-1">
        <lane id="E10_0" index="0" speed="13.89" length="22.07" shape="231.05,-149.73 235.49,-171.35"/>
        <lane id="E10_1" index="1" speed="13.89" length="22.07" shape="234.19,-149.08 238.62,-170.71"/>
    </edge>
    <edge id="E10.33" from="J19" to="J16" priority="-1" shape="240.19,-170.39 263.58,-284.55 273.77,-370.17 267.44,-451.53">
        <lane id="E10.33_0" index="0" speed="13.89" length="283.47" shape="235.49,-171.35 258.84,-285.32 268.95,-370.27 262.65,-451.16"/>
        <lane id="E10.33_1" index="1" speed="13.89" length="283.47" shape="238.62,-170.71 262.00,-284.81 272.16,-370.20 265.84,-451.40"/>
    </edge>
    <edge id="E11" from="J10" to="J17" priority="-1">
        <lane id="E11_0" index="0" speed="13.89" length="172.02" shape="-389.79,-290.58 -363.06,-460.51"/>
        <lane id="E11_1" index="1" speed="13.89" length="172.02" shape="-386.63,-290.08 -359.90,-460.01"/>
    </edge>
    <edge id="E12" from="J10" to="J18" priority="-1" shape="-387.14,-276.56 -449.54,-284.68 -604.30,-304.35">
        <lane id="E12_0" index="0" speed="13.89" length="208.55" shape="-398.45,-269.97 -450.56,-276.75 -605.31,-296.42"/>
        <lane id="E12_1" index="1" speed="13.89" length="208.55" shape="-398.04,-273.14 -450.15,-279.92 -604.90,-299.59"/>
        <lane id="E12_2" index="2" speed="13.89" length="208.55" shape="-397.63,-276.32 -449.74,-283.09 -604.50,-302.77"/>
    </edge>
    <edge id="E4" from="J9" to="J10" priority="-1">
        <lane id="E4_0" index="0" speed="13.89" length="655.60" shape="-476.29,386.67 -393.61,-263.70"/>
        <lane id="E4_1" index="1" speed="13.89" length="655.60" shape="-473.12,387.07 -390.44,-263.29"/>
    </edge>
    <edge id="E5" from="J10" to="J11" priority="-1">
        <lane id="E5_0" index="0" speed="13.89" length="388.49" shape="-376.05,-279.91 8.95,-227.91"/>
        <lane id="E5_1" index="1" speed="13.89" length="388.49" shape="-376.48,-276.74 8.52,-224.74"/>
    </edge>
    <edge id="E6" from="J11" to="J12" priority="-1" shape="9.11,-223.05 119.11,-178.47 233.47,-137.62">
        <lane id="E6_0" index="0" speed="13.89" length="227.82" shape="11.66,-227.19 120.82,-182.96 224.38,-145.97"/>
        <lane id="E6_1" index="1" speed="13.89" length="227.82" shape="10.46,-224.23 119.68,-179.97 223.30,-142.95"/>
    </edge>
    <edge id="E7" from="J12" to="J13" priority="-1">
        <lane id="E7_0" index="0" speed="13.89" length="446.50" shape="237.02,-127.89 177.88,314.68"/>
        <lane id="E7_1" index="1" speed="13.89" length="446.50" shape="233.84,-128.31 174.70,314.25"/>
    </edge>
    <edge id="E8" from="J13" to="J14" priority="-1">
        <lane id="E8_0" index="0" speed="13.89" length="231.77" shape="182.73,320.88 413.09,346.48"/>
        <lane id="E8_1" index="1" speed="13.89" length="231.77" shape="182.38,324.06 412.73,349.66"/>
    </edge>
    <edge id="E9" from="J13" to="J15" priority="-1">
        <lane id="E9_0" index="0" speed="13.89" length="116.18" shape="175.23,335.32 161.05,450.64"/>
        <lane id="E9_1" index="1" speed="13.89" length="116.18" shape="172.05,334.93 157.87,450.25"/>
    </edge>

    <junction id="J10" type="priority" x="-387.14" y="-276.56" incLanes="-E5_0 -E5_1 -E11_0 -E11_1 -E12_0 -E12_1 -E12_2 E4_0 E4_1" intLanes=":J10_0_0 :J10_1_0 :J10_1_1 :J10_16_0 :J10_4_0 :J10_5_0 :J10_5_1 :J10_7_0 :J10_8_0 :J10_9_0 :J10_9_1 :J10_17_0 :J10_12_0 :J10_13_0 :J10_13_1 :J10_15_0" shape="-377.55,-268.81 -375.83,-281.50 -377.92,-282.55 -378.54,-283.60 -378.88,-285.00 -378.94,-286.74 -378.73,-288.84 -391.37,-290.83 -392.18,-288.69 -392.88,-288.00 -393.79,-287.56 -394.89,-287.37 -396.18,-287.42 -398.66,-268.38 -396.51,-267.65 -395.81,-267.00 -395.36,-266.16 -395.15,-265.13 -395.20,-263.90 -382.50,-262.28 -382.11,-264.43 -381.55,-266.15 -380.81,-267.45 -379.90,-268.33 -378.81,-268.78">
        <request index="0"  response="0000000000000000" foes="0000000001100000" cont="0"/>
        <request index="1"  response="0000000000000000" foes="1110100011100000" cont="0"/>
        <request index="2"  response="0000000000000000" foes="1110100011100000" cont="0"/>
        <request index="3"  response="0000011000000000" foes="1110011011100000" cont="1"/>
        <request index="4"  response="0000011000000000" foes="0000011000000000" cont="0"/>
        <request index="5"  response="0000111000001111" foes="1000111000001111" cont="0"/>
        <request index="6"  response="0000111000001111" foes="1000111000001111" cont="0"/>
        <request index="7"  response="0110111000001110" foes="0110111000001110" cont="0"/>
        <request index="8"  response="0000000000000000" foes="0110000000000000" cont="0"/>
        <request index="9"  response="0000000000000000" foes="1110000011111000" cont="0"/>
        <request index="10" response="0000000000000000" foes="1110000011111000" cont="0"/>
        <request index="11" response="0000000000000110" foes="1110000011100110" cont="1"/>
        <request index="12" response="0000000000000000" foes="0000000000000000" cont="0"/>
        <request index="13" response="0000111100001110" foes="0000111110001110" cont="0"/>
        <request index="14" response="0000111100001110" foes="0000111110001110" cont="0"/>
        <request index="15" response="0000111001101110" foes="0000111001101110" cont="0"/>
    </junction>
    <junction id="J11" type="priority" x="9.11" y="-223.05" incLanes="-E6_0 -E6_1 E5_0 E5_1" intLanes=":J11_0_0 :J11_0_1 :J11_2_0 :J11_2_1" shape="7.45,-216.81 12.26,-228.67 11.15,-229.11 10.75,-229.23 10.34,-229.32 9.84,-229.40 9.16,-229.50">
        <request index="0" response="0000" foes="0000" cont="0"/>
        <request index="1" response="0000" foes="0000" cont="0"/>
        <request index="2" response="0000" foes="0000" cont="0"/>
        <request index="3" response="0000" foes="0000" cont="0"/>
    </junction>
    <junction id="J12" type="priority" x="233.47" y="-137.62" incLanes="-E10_0 -E10_1 E6_0 E6_1 -E7_0 -E7_1" intLanes=":J12_0_0 :J12_0_1 :J12_8_0 :J12_3_0 :J12_4_0 :J12_5_0 :J12_6_0 :J12_6_1" shape="242.03,-147.48 229.49,-150.05 228.62,-148.02 227.94,-147.44 227.10,-147.16 226.09,-147.17 224.92,-147.47 220.61,-135.42 223.79,-133.82 224.85,-132.87 225.56,-131.81 225.91,-130.64 225.91,-129.37 238.60,-127.68">
        <request index="0" response="00000000" foes="00010000" cont="0"/>
        <request index="1" response="00000000" foes="00010000" cont="0"/>
        <request index="2" response="11000000" foes="11010000" cont="1"/>
        <request index="3" response="11000000" foes="11000000" cont="0"/>
        <request index="4" response="11000111" foes="11000111" cont="0"/>
        <request index="5" response="00000000" foes="00000000" cont="0"/>
        <request index="6" response="00000000" foes="00011100" cont="0"/>
        <request index="7" response="00000000" foes="00011100" cont="0"/>
    </junction>
    <junction id="J13" type="priority" x="171.72" y="324.49" incLanes="-E8_0 -E8_1 E7_0 E7_1 -E9_0 -E9_1" intLanes=":J13_0_0 :J13_1_0 :J13_2_0 :J13_3_0 :J13_3_1 :J13_5_0 :J13_5_1 :J13_8_0" shape="181.49,332.02 182.91,319.29 180.76,318.61 180.06,317.97 179.61,317.14 179.41,316.11 179.46,314.89 166.77,313.19 164.11,333.96 176.81,335.52 177.55,333.37 178.23,332.66 179.11,332.20 180.20,331.98">
        <request index="0" response="00011000" foes="00011000" cont="0"/>
        <request index="1" response="11111000" foes="11111000" cont="0"/>
        <request index="2" response="00000000" foes="00000000" cont="0"/>
        <request index="3" response="00000000" foes="10000011" cont="0"/>
        <request index="4" response="00000000" foes="10000011" cont="0"/>
        <request index="5" response="00000000" foes="00000010" cont="0"/>
        <request index="6" response="00000000" foes="00000010" cont="0"/>
        <request index="7" response="00011000" foes="00011010" cont="1"/>
    </junction>
    <junction id="J14" type="dead_end" x="412.56" y="351.25" incLanes="E8_0 E8_1" intLanes="" shape="412.56,351.25 413.26,344.89 412.56,351.25"/>
    <junction id="J15" type="dead_end" x="156.28" y="450.05" incLanes="E9_0 E9_1" intLanes="" shape="156.28,450.05 162.64,450.83 156.28,450.05"/>
    <junction id="J16" type="dead_end" x="267.44" y="-451.53" incLanes="E10.33_0 E10.33_1" intLanes="" shape="267.44,-451.53 261.06,-451.03 267.44,-451.53"/>
    <junction id="J17" type="dead_end" x="-358.32" y="-459.76" incLanes="E11_0 E11_1" intLanes="" shape="-358.32,-459.76 -364.64,-460.76 -358.32,-459.76"/>
    <junction id="J18" type="dead_end" x="-604.30" y="-304.35" incLanes="E12_0 E12_1 E12_2" intLanes="" shape="-604.30,-304.35 -605.51,-294.83 -604.30,-304.35"/>
    <junction id="J19" type="priority" x="240.19" y="-170.39" incLanes="-E10.33_0 -E10.33_1 E10_0 E10_1" intLanes=":J19_0_0 :J19_0_1 :J19_2_0 :J19_2_1" shape="246.46,-169.10 233.92,-171.67 246.46,-169.10">
        <request index="0" response="0000" foes="0000" cont="0"/>
        <request index="1" response="0000" foes="0000" cont="0"/>
        <request index="2" response="0000" foes="0000" cont="0"/>
        <request index="3" response="0000" foes="0000" cont="0"/>
    </junction>
    <junction id="J9" type="dead_end" x="-471.53" y="387.27" incLanes="-E4_0 -E4_1" intLanes="" shape="-471.53,387.27 -465.18,388.08 -471.53,387.27"/>

    <junction id=":J10_16_0" type="internal" x="-382.17" y="-275.34" incLanes=":J10_3_0 -E12_0 -E12_1" intLanes=":J10_5_0 :J10_5_1 :J10_7_0 :J10_8_0 :J10_9_0 :J10_9_1 :J10_13_0 :J10_13_1 :J10_15_0"/>
    <junction id=":J10_17_0" type="internal" x="-393.34" y="-278.26" incLanes=":J10_11_0 -E5_0 -E5_1" intLanes=":J10_0_0 :J10_1_0 :J10_1_1 :J10_5_0 :J10_5_1 :J10_7_0 :J10_13_0 :J10_13_1 :J10_15_0"/>
    <junction id=":J12_8_0" type="internal" x="235.93" y="-144.58" incLanes=":J12_2_0 -E7_0 -E7_1" intLanes=":J12_4_0 :J12_6_0 :J12_6_1"/>
    <junction id=":J13_8_0" type="internal" x="170.22" y="329.63" incLanes=":J13_7_0 E7_0 E7_1" intLanes=":J13_1_0 :J13_3_0 :J13_3_1"/>

    <connection from="-E10" to="E7" fromLane="0" toLane="0" via=":J12_0_0" dir="s" state="M"/>
    <connection from="-E10" to="E7" fromLane="1" toLane="1" via=":J12_0_1" dir="s" state="M"/>
    <connection from="-E10" to="-E6" fromLane="1" toLane="1" via=":J12_2_0" dir="l" state="m"/>
    <connection from="-E10.33" to="-E10" fromLane="0" toLane="0" via=":J19_0_0" dir="s" state="M"/>
    <connection from="-E10.33" to="-E10" fromLane="1" toLane="1" via=":J19_0_1" dir="s" state="M"/>
    <connection from="-E11" to="E5" fromLane="0" toLane="0" via=":J10_4_0" dir="r" state="m"/>
    <connection from="-E11" to="-E4" fromLane="0" toLane="0" via=":J10_5_0" dir="s" state="m"/>
    <connection from="-E11" to="-E4" fromLane="1" toLane="1" via=":J10_5_1" dir="s" state="m"/>
    <connection from="-E11" to="E12" fromLane="1" toLane="2" via=":J10_7_0" dir="l" state="m"/>
    <connection from="-E12" to="E11" fromLane="0" toLane="0" via=":J10_8_0" dir="r" state="M"/>
    <connection from="-E12" to="E5" fromLane="0" toLane="0" via=":J10_9_0" dir="s" state="M"/>
    <connection from="-E12" to="E5" fromLane="1" toLane="1" via=":J10_9_1" dir="s" state="M"/>
    <connection from="-E12" to="-E4" fromLane="2" toLane="1" via=":J10_11_0" dir="l" state="m"/>
    <connection from="-E5" to="-E4" fromLane="0" toLane="0" via=":J10_0_0" dir="r" state="M"/>
    <connection from="-E5" to="E12" fromLane="0" toLane="1" via=":J10_1_0" dir="s" state="M"/>
    <connection from="-E5" to="E12" fromLane="1" toLane="2" via=":J10_1_1" dir="s" state="M"/>
    <connection from="-E5" to="E11" fromLane="1" toLane="1" via=":J10_3_0" dir="l" state="m"/>
    <connection from="-E6" to="-E5" fromLane="0" toLane="0" via=":J11_0_0" dir="s" state="M"/>
    <connection from="-E6" to="-E5" fromLane="1" toLane="1" via=":J11_0_1" dir="s" state="M"/>
    <connection from="-E7" to="-E6" fromLane="0" toLane="0" via=":J12_5_0" dir="r" state="M"/>
    <connection from="-E7" to="E10" fromLane="0" toLane="0" via=":J12_6_0" dir="s" state="M"/>
    <connection from="-E7" to="E10" fromLane="1" toLane="1" via=":J12_6_1" dir="s" state="M"/>
    <connection from="-E8" to="E9" fromLane="0" toLane="0" via=":J13_0_0" dir="r" state="m"/>
    <connection from="-E8" to="-E7" fromLane="1" toLane="1" via=":J13_1_0" dir="l" state="m"/>
    <connection from="-E9" to="-E7" fromLane="0" toLane="0" via=":J13_5_0" dir="s" state="M"/>
    <connection from="-E9" to="-E7" fromLane="1" toLane="1" via=":J13_5_1" dir="s" state="M"/>
    <connection from="-E9" to="E8" fromLane="1" toLane="1" via=":J13_7_0" dir="l" state="m"/>
    <connection from="E10" to="E10.33" fromLane="0" toLane="0" via=":J19_2_0" dir="s" state="M"/>
    <connection from="E10" to="E10.33" fromLane="1" toLane="1" via=":J19_2_1" dir="s" state="M"/>
    <connection from="E4" to="E12" fromLane="0" toLane="0" via=":J10_12_0" dir="r" state="M"/>
    <connection from="E4" to="E11" fromLane="0" toLane="0" via=":J10_13_0" dir="s" state="m"/>
    <connection from="E4" to="E11" fromLane="1" toLane="1" via=":J10_13_1" dir="s" state="m"/>
    <connection from="E4" to="E5" fromLane="1" toLane="1" via=":J10_15_0" dir="l" state="m"/>
    <connection from="E5" to="E6" fromLane="0" toLane="0" via=":J11_2_0" dir="s" state="M"/>
    <connection from="E5" to="E6" fromLane="1" toLane="1" via=":J11_2_1" dir="s" state="M"/>
    <connection from="E6" to="E10" fromLane="0" toLane="0" via=":J12_3_0" dir="r" state="m"/>
    <connection from="E6" to="E7" fromLane="1" toLane="1" via=":J12_4_0" dir="l" state="m"/>
    <connection from="E7" to="E8" fromLane="0" toLane="0" via=":J13_2_0" dir="r" state="M"/>
    <connection from="E7" to="E9" fromLane="0" toLane="0" via=":J13_3_0" dir="s" state="M"/>
    <connection from="E7" to="E9" fromLane="1" toLane="1" via=":J13_3_1" dir="s" state="M"/>

    <connection from=":J10_0" to="-E4" fromLane="0" toLane="0" dir="r" state="M"/>
    <connection from=":J10_1" to="E12" fromLane="0" toLane="1" dir="s" state="M"/>
    <connection from=":J10_1" to="E12" fromLane="1" toLane="2" dir="s" state="M"/>
    <connection from=":J10_3" to="E11" fromLane="0" toLane="1" via=":J10_16_0" dir="l" state="m"/>
    <connection from=":J10_16" to="E11" fromLane="0" toLane="1" dir="l" state="M"/>
    <connection from=":J10_4" to="E5" fromLane="0" toLane="0" dir="r" state="M"/>
    <connection from=":J10_5" to="-E4" fromLane="0" toLane="0" dir="s" state="M"/>
    <connection from=":J10_5" to="-E4" fromLane="1" toLane="1" dir="s" state="M"/>
    <connection from=":J10_7" to="E12" fromLane="0" toLane="2" dir="l" state="M"/>
    <connection from=":J10_8" to="E11" fromLane="0" toLane="0" dir="r" state="M"/>
    <connection from=":J10_9" to="E5" fromLane="0" toLane="0" dir="s" state="M"/>
    <connection from=":J10_9" to="E5" fromLane="1" toLane="1" dir="s" state="M"/>
    <connection from=":J10_11" to="-E4" fromLane="0" toLane="1" via=":J10_17_0" dir="l" state="m"/>
    <connection from=":J10_17" to="-E4" fromLane="0" toLane="1" dir="l" state="M"/>
    <connection from=":J10_12" to="E12" fromLane="0" toLane="0" dir="r" state="M"/>
    <connection from=":J10_13" to="E11" fromLane="0" toLane="0" dir="s" state="M"/>
    <connection from=":J10_13" to="E11" fromLane="1" toLane="1" dir="s" state="M"/>
    <connection from=":J10_15" to="E5" fromLane="0" toLane="1" dir="l" state="M"/>
    <connection from=":J11_0" to="-E5" fromLane="0" toLane="0" dir="s" state="M"/>
    <connection from=":J11_0" to="-E5" fromLane="1" toLane="1" dir="s" state="M"/>
    <connection from=":J11_2" to="E6" fromLane="0" toLane="0" dir="s" state="M"/>
    <connection from=":J11_2" to="E6" fromLane="1" toLane="1" dir="s" state="M"/>
    <connection from=":J12_0" to="E7" fromLane="0" toLane="0" dir="s" state="M"/>
    <connection from=":J12_0" to="E7" fromLane="1" toLane="1" dir="s" state="M"/>
    <connection from=":J12_2" to="-E6" fromLane="0" toLane="1" via=":J12_8_0" dir="l" state="m"/>
    <connection from=":J12_8" to="-E6" fromLane="0" toLane="1" dir="l" state="M"/>
    <connection from=":J12_3" to="E10" fromLane="0" toLane="0" dir="r" state="M"/>
    <connection from=":J12_4" to="E7" fromLane="0" toLane="1" dir="l" state="M"/>
    <connection from=":J12_5" to="-E6" fromLane="0" toLane="0" dir="r" state="M"/>
    <connection from=":J12_6" to="E10" fromLane="0" toLane="0" dir="s" state="M"/>
    <connection from=":J12_6" to="E10" fromLane="1" toLane="1" dir="s" state="M"/>
    <connection from=":J13_0" to="E9" fromLane="0" toLane="0" dir="r" state="M"/>
    <connection from=":J13_1" to="-E7" fromLane="0" toLane="1" dir="l" state="M"/>
    <connection from=":J13_2" to="E8" fromLane="0" toLane="0" dir="r" state="M"/>
    <connection from=":J13_3" to="E9" fromLane="0" toLane="0" dir="s" state="M"/>
    <connection from=":J13_3" to="E9" fromLane="1" toLane="1" dir="s" state="M"/>
    <connection from=":J13_5" to="-E7" fromLane="0" toLane="0" dir="s" state="M"/>
    <connection from=":J13_5" to="-E7" fromLane="1" toLane="1" dir="s" state="M"/>
    <connection from=":J13_7" to="E8" fromLane="0" toLane="1" via=":J13_8_0" dir="l" state="m"/>
    <connection from=":J13_8" to="E8" fromLane="0" toLane="1" dir="l" state="M"/>
    <connection from=":J19_0" to="-E10" fromLane="0" toLane="0" dir="s" state="M"/>
    <connection from=":J19_0" to="-E10" fromLane="1" toLane="1" dir="s" state="M"/>
    <connection from=":J19_2" to="E10.33" fromLane="0" toLane="0" dir="s" state="M"/>
    <connection from=":J19_2" to="E10.33" fromLane="1" toLane="1" dir="s" state="M"/>

</net>
